Circuit: * C:\Users\hongy\OneDrive\Máy tính\Embedded Project\short circuit protection_simulation\short_circuit_protection.asc

Direct Newton iteration for .op point succeeded.

Date: Tue Nov 19 17:55:44 2024
Total elapsed time: 0.103 seconds.

tnom = 27
temp = 27
method = modified trap
totiter = 1486
traniter = 1466
tranpoints = 594
accept = 507
rejected = 87
matrix size = 14
fillins = 0
solver = Normal
Avg thread counts: 6.0/12.2/11.8/6.0
Matrix Compiler1: 456 bytes object code size  0.2/0.1/[0.1]
Matrix Compiler2: off  [0.1]/0.1/0.2

