Circuit: * U:\Embedded Project\current_simulation\shunt current.asc


Date: Fri Oct 04 09:29:16 2024
Total elapsed time: 0.031 seconds.

tnom = 27
temp = 27
method = trap
totiter = 2003
traniter = 0
tranpoints = 0
accept = 0
rejected = 0
matrix size = 9
fillins = 2
solver = Normal
Matrix Compiler1:      26 opcodes  0.1/[0.0]/0.0
Matrix Compiler2: 703 bytes object code size  0.0/0.1/[0.0]

