Circuit: * C:\Users\hongy\OneDrive\Máy tính\current_simulation\current_protection_simulation\current_protection.asc


Date: Tue Nov 19 17:07:35 2024
Total elapsed time: 0.139 seconds.

tnom = 27
temp = 27
method = trap
totiter = 3894
traniter = 0
tranpoints = 0
accept = 0
rejected = 0
matrix size = 12
fillins = 1
solver = Normal
Avg thread counts: 2.9/0.0/4.8/2.9
Matrix Compiler1: 518 bytes object code size  0.2/0.1/[0.1]
Matrix Compiler2: 894 bytes object code size  0.1/0.2/[0.1]

